9KER_ligand_vina_best
     RDKit          3D

 20 20  0  0  0  0  0  0  0  0999 V2000
    4.6690    9.2110   28.3050 C   0  0  0  0  0  0  0  0  0  0  0  0
    5.6040    8.1590   28.8240 C   0  0  0  0  0  0  0  0  0  0  0  0
    5.8430    7.9930   30.0180 O   0  0  0  0  0  0  0  0  0  0  0  0
    6.2300    7.5430   27.7500 O   0  0  0  0  0  0  0  0  0  0  0  0
    5.4430    6.5430   27.1740 C   0  0  0  0  0  0  0  0  0  0  0  0
    5.0640    5.4710   27.9920 C   0  0  0  0  0  0  0  0  0  0  0  0
    4.3370    4.4120   27.4520 C   0  0  0  0  0  0  0  0  0  0  0  0
    4.0080    4.4210   26.0990 C   0  0  0  0  0  0  0  0  0  0  0  0
    4.4080    5.4870   25.2870 C   0  0  0  0  0  0  0  0  0  0  0  0
    5.1380    6.5750   25.8050 C   0  0  0  0  0  0  0  0  0  0  0  0
    5.5560    7.7020   24.8810 C   0  0  0  0  0  0  0  0  0  0  0  0
    6.4410    7.4270   24.0080 O   0  0  0  0  0  0  0  0  0  0  0  0
    5.0000    8.8370   25.0230 O   0  0  0  0  0  1  0  0  0  0  0  0
    4.2021    9.7363   29.1512 H   0  0  0  0  0  0  0  0  0  0  0  0
    5.2310    9.9307   27.6916 H   0  0  0  0  0  0  0  0  0  0  0  0
    3.8883    8.7374   27.6916 H   0  0  0  0  0  0  0  0  0  0  0  0
    5.3393    5.4652   29.0570 H   0  0  0  0  0  0  0  0  0  0  0  0
    4.0246    3.5731   28.0913 H   0  0  0  0  0  0  0  0  0  0  0  0
    3.4326    3.5883   25.6682 H   0  0  0  0  0  0  0  0  0  0  0  0
    4.1465    5.4758   24.2186 H   0  0  0  0  0  0  0  0  0  0  0  0
  1  2  1  0
  2  3  2  0
  2  4  1  0
  4  5  1  0
  5  6  2  0
  6  7  1  0
  7  8  2  0
  8  9  1  0
  9 10  2  0
 10 11  1  0
 11 12  2  0
 11 13  1  0
 10  5  1  0
  1 14  1  0
  1 15  1  0
  1 16  1  0
  6 17  1  0
  7 18  1  0
  8 19  1  0
  9 20  1  0
M  CHG  1  13  -1
M  END
>  <meeko>  (1) 
{"is_sidechain": [false], "free_energy": -5.345, "intermolecular_energy": -6.283, "internal_energy": -0.296}

$$$$
9KER_ligand_vina_best
     RDKit          3D

 20 20  0  0  0  0  0  0  0  0999 V2000
    3.8890    5.2430   22.2880 C   0  0  0  0  0  0  0  0  0  0  0  0
    4.7750    5.5390   23.4640 C   0  0  0  0  0  0  0  0  0  0  0  0
    5.9580    5.2130   23.5200 O   0  0  0  0  0  0  0  0  0  0  0  0
    4.0060    6.0850   24.4810 O   0  0  0  0  0  0  0  0  0  0  0  0
    4.4140    5.6610   25.7470 C   0  0  0  0  0  0  0  0  0  0  0  0
    4.0080    4.3870   26.1630 C   0  0  0  0  0  0  0  0  0  0  0  0
    4.3290    3.9410   27.4430 C   0  0  0  0  0  0  0  0  0  0  0  0
    5.0370    4.7730   28.3050 C   0  0  0  0  0  0  0  0  0  0  0  0
    5.4220    6.0510   27.8880 C   0  0  0  0  0  0  0  0  0  0  0  0
    5.1180    6.5280   26.5980 C   0  0  0  0  0  0  0  0  0  0  0  0
    5.5490    7.9250   26.1970 C   0  0  0  0  0  0  0  0  0  0  0  0
    6.4950    8.0100   25.3490 O   0  0  0  0  0  0  0  0  0  0  0  0
    4.9420    8.9160   26.7140 O   0  0  0  0  0  1  0  0  0  0  0  0
    2.9025    4.9134   22.6459 H   0  0  0  0  0  0  0  0  0  0  0  0
    3.7732    6.1513   21.6784 H   0  0  0  0  0  0  0  0  0  0  0  0
    4.3424    4.4475   21.6784 H   0  0  0  0  0  0  0  0  0  0  0  0
    3.4370    3.7401   25.4807 H   0  0  0  0  0  0  0  0  0  0  0  0
    4.0244    2.9361   27.7708 H   0  0  0  0  0  0  0  0  0  0  0  0
    5.2942    4.4247   29.3162 H   0  0  0  0  0  0  0  0  0  0  0  0
    5.9752    6.6990   28.5837 H   0  0  0  0  0  0  0  0  0  0  0  0
  1  2  1  0
  2  3  2  0
  2  4  1  0
  4  5  1  0
  5  6  2  0
  6  7  1  0
  7  8  2  0
  8  9  1  0
  9 10  2  0
 10 11  1  0
 11 12  2  0
 11 13  1  0
 10  5  1  0
  1 14  1  0
  1 15  1  0
  1 16  1  0
  6 17  1  0
  7 18  1  0
  8 19  1  0
  9 20  1  0
M  CHG  1  13  -1
M  END
>  <meeko>  (2) 
{"is_sidechain": [false], "free_energy": -5.226, "intermolecular_energy": -6.091, "internal_energy": -0.347}

$$$$
9KER_ligand_vina_best
     RDKit          3D

 20 20  0  0  0  0  0  0  0  0999 V2000
    5.9790    3.7540   28.6780 C   0  0  0  0  0  0  0  0  0  0  0  0
    5.2770    4.6430   27.6920 C   0  0  0  0  0  0  0  0  0  0  0  0
    4.1460    4.4250   27.2680 O   0  0  0  0  0  0  0  0  0  0  0  0
    6.1610    5.6210   27.2610 O   0  0  0  0  0  0  0  0  0  0  0  0
    5.6740    6.9130   27.4720 C   0  0  0  0  0  0  0  0  0  0  0  0
    5.5350    7.3410   28.7980 C   0  0  0  0  0  0  0  0  0  0  0  0
    4.9900    8.5940   29.0690 C   0  0  0  0  0  0  0  0  0  0  0  0
    4.5710    9.4050   28.0170 C   0  0  0  0  0  0  0  0  0  0  0  0
    4.6970    8.9610   26.6970 C   0  0  0  0  0  0  0  0  0  0  0  0
    5.2500    7.7020   26.3910 C   0  0  0  0  0  0  0  0  0  0  0  0
    5.3550    7.2630   24.9440 C   0  0  0  0  0  0  0  0  0  0  0  0
    6.2850    7.7890   24.2530 O   0  0  0  0  0  0  0  0  0  0  0  0
    4.5260    6.3980   24.5140 O   0  0  0  0  0  1  0  0  0  0  0  0
    5.7284    4.0713   29.7010 H   0  0  0  0  0  0  0  0  0  0  0  0
    5.6565    2.7131   28.5276 H   0  0  0  0  0  0  0  0  0  0  0  0
    7.0663    3.8264   28.5276 H   0  0  0  0  0  0  0  0  0  0  0  0
    5.8555    6.6891   29.6240 H   0  0  0  0  0  0  0  0  0  0  0  0
    4.8911    8.9410   30.1081 H   0  0  0  0  0  0  0  0  0  0  0  0
    4.1406   10.3957   28.2247 H   0  0  0  0  0  0  0  0  0  0  0  0
    4.3560    9.6107   25.8775 H   0  0  0  0  0  0  0  0  0  0  0  0
  1  2  1  0
  2  3  2  0
  2  4  1  0
  4  5  1  0
  5  6  2  0
  6  7  1  0
  7  8  2  0
  8  9  1  0
  9 10  2  0
 10 11  1  0
 11 12  2  0
 11 13  1  0
 10  5  1  0
  1 14  1  0
  1 15  1  0
  1 16  1  0
  6 17  1  0
  7 18  1  0
  8 19  1  0
  9 20  1  0
M  CHG  1  13  -1
M  END
>  <meeko>  (3) 
{"is_sidechain": [false], "free_energy": -5.201, "intermolecular_energy": -5.994, "internal_energy": -0.414}

$$$$
9KER_ligand_vina_best
     RDKit          3D

 20 20  0  0  0  0  0  0  0  0999 V2000
    3.4590    3.0490   26.8280 C   0  0  0  0  0  0  0  0  0  0  0  0
    4.5000    4.0840   26.5120 C   0  0  0  0  0  0  0  0  0  0  0  0
    5.7070    3.8800   26.6020 O   0  0  0  0  0  0  0  0  0  0  0  0
    3.8690    5.2930   26.2580 O   0  0  0  0  0  0  0  0  0  0  0  0
    4.1970    5.8150   25.0050 C   0  0  0  0  0  0  0  0  0  0  0  0
    3.7140    5.1370   23.8790 C   0  0  0  0  0  0  0  0  0  0  0  0
    4.0670    5.5730   22.6030 C   0  0  0  0  0  0  0  0  0  0  0  0
    4.9120    6.6710   22.4600 C   0  0  0  0  0  0  0  0  0  0  0  0
    5.4040    7.3290   23.5910 C   0  0  0  0  0  0  0  0  0  0  0  0
    5.0600    6.9160   24.8930 C   0  0  0  0  0  0  0  0  0  0  0  0
    5.6280    7.6570   26.0870 C   0  0  0  0  0  0  0  0  0  0  0  0
    6.6880    7.1800   26.6050 O   0  0  0  0  0  0  0  0  0  0  0  0
    5.0270    8.7040   26.4900 O   0  0  0  0  0  1  0  0  0  0  0  0
    3.3596    2.9501   27.9190 H   0  0  0  0  0  0  0  0  0  0  0  0
    2.4942    3.3562   26.3982 H   0  0  0  0  0  0  0  0  0  0  0  0
    3.7607    2.0824   26.3982 H   0  0  0  0  0  0  0  0  0  0  0  0
    3.0578    4.2627   24.0011 H   0  0  0  0  0  0  0  0  0  0  0  0
    3.6805    5.0530   21.7141 H   0  0  0  0  0  0  0  0  0  0  0  0
    5.1926    7.0209   21.4556 H   0  0  0  0  0  0  0  0  0  0  0  0
    6.0760    8.1901   23.4611 H   0  0  0  0  0  0  0  0  0  0  0  0
  1  2  1  0
  2  3  2  0
  2  4  1  0
  4  5  1  0
  5  6  2  0
  6  7  1  0
  7  8  2  0
  8  9  1  0
  9 10  2  0
 10 11  1  0
 11 12  2  0
 11 13  1  0
 10  5  1  0
  1 14  1  0
  1 15  1  0
  1 16  1  0
  6 17  1  0
  7 18  1  0
  8 19  1  0
  9 20  1  0
M  CHG  1  13  -1
M  END
>  <meeko>  (4) 
{"is_sidechain": [false], "free_energy": -5.017, "intermolecular_energy": -5.764, "internal_energy": -0.429}

$$$$
9KER_ligand_vina_best
     RDKit          3D

 20 20  0  0  0  0  0  0  0  0999 V2000
    7.2830    4.8080   20.8920 C   0  0  0  0  0  0  0  0  0  0  0  0
    7.1270    5.1550   22.3440 C   0  0  0  0  0  0  0  0  0  0  0  0
    7.8760    4.7400   23.2240 O   0  0  0  0  0  0  0  0  0  0  0  0
    5.9500    5.8700   22.5110 O   0  0  0  0  0  0  0  0  0  0  0  0
    5.1860    5.4000   23.5810 C   0  0  0  0  0  0  0  0  0  0  0  0
    4.5410    4.1670   23.4200 C   0  0  0  0  0  0  0  0  0  0  0  0
    3.7100    3.6830   24.4280 C   0  0  0  0  0  0  0  0  0  0  0  0
    3.5150    4.4380   25.5820 C   0  0  0  0  0  0  0  0  0  0  0  0
    4.1480    5.6760   25.7250 C   0  0  0  0  0  0  0  0  0  0  0  0
    4.9990    6.1900   24.7260 C   0  0  0  0  0  0  0  0  0  0  0  0
    5.6540    7.5420   24.9250 C   0  0  0  0  0  0  0  0  0  0  0  0
    6.6430    7.5870   25.7260 O   0  0  0  0  0  0  0  0  0  0  0  0
    5.1920    8.5380   24.2810 O   0  0  0  0  0  1  0  0  0  0  0  0
    7.7325    3.8082   20.8002 H   0  0  0  0  0  0  0  0  0  0  0  0
    6.2963    4.8125   20.4059 H   0  0  0  0  0  0  0  0  0  0  0  0
    7.9346    5.5490   20.4059 H   0  0  0  0  0  0  0  0  0  0  0  0
    4.6902    3.5825   22.5002 H   0  0  0  0  0  0  0  0  0  0  0  0
    3.2105    2.7097   24.3131 H   0  0  0  0  0  0  0  0  0  0  0  0
    2.8619    4.0595   26.3821 H   0  0  0  0  0  0  0  0  0  0  0  0
    3.9778    6.2633   26.6394 H   0  0  0  0  0  0  0  0  0  0  0  0
  1  2  1  0
  2  3  2  0
  2  4  1  0
  4  5  1  0
  5  6  2  0
  6  7  1  0
  7  8  2  0
  8  9  1  0
  9 10  2  0
 10 11  1  0
 11 12  2  0
 11 13  1  0
 10  5  1  0
  1 14  1  0
  1 15  1  0
  1 16  1  0
  6 17  1  0
  7 18  1  0
  8 19  1  0
  9 20  1  0
M  CHG  1  13  -1
M  END
>  <meeko>  (5) 
{"is_sidechain": [false], "free_energy": -4.93, "intermolecular_energy": -5.755, "internal_energy": -0.336}

$$$$
9KER_ligand_vina_best
     RDKit          3D

 20 20  0  0  0  0  0  0  0  0999 V2000
    3.2730    3.1310   26.2350 C   0  0  0  0  0  0  0  0  0  0  0  0
    3.8370    4.4150   25.7000 C   0  0  0  0  0  0  0  0  0  0  0  0
    3.2480    5.1300   24.8930 O   0  0  0  0  0  0  0  0  0  0  0  0
    5.1420    4.5550   26.1480 O   0  0  0  0  0  0  0  0  0  0  0  0
    5.2650    5.5310   27.1400 C   0  0  0  0  0  0  0  0  0  0  0  0
    4.9580    5.1570   28.4540 C   0  0  0  0  0  0  0  0  0  0  0  0
    4.9970    6.1070   29.4720 C   0  0  0  0  0  0  0  0  0  0  0  0
    5.3250    7.4260   29.1710 C   0  0  0  0  0  0  0  0  0  0  0  0
    5.6110    7.7940   27.8520 C   0  0  0  0  0  0  0  0  0  0  0  0
    5.5860    6.8550   26.8030 C   0  0  0  0  0  0  0  0  0  0  0  0
    5.8950    7.3050   25.3890 C   0  0  0  0  0  0  0  0  0  0  0  0
    5.2270    8.2950   24.9450 O   0  0  0  0  0  0  0  0  0  0  0  0
    6.7970    6.6850   24.7400 O   0  0  0  0  0  1  0  0  0  0  0  0
    3.2839    3.1558   27.3347 H   0  0  0  0  0  0  0  0  0  0  0  0
    2.2386    3.0093   25.8812 H   0  0  0  0  0  0  0  0  0  0  0  0
    3.8832    2.2869   25.8812 H   0  0  0  0  0  0  0  0  0  0  0  0
    4.6867    4.1156   28.6818 H   0  0  0  0  0  0  0  0  0  0  0  0
    4.7698    5.8165   30.5083 H   0  0  0  0  0  0  0  0  0  0  0  0
    5.3593    8.1798   29.9713 H   0  0  0  0  0  0  0  0  0  0  0  0
    5.8613    8.8417   27.6290 H   0  0  0  0  0  0  0  0  0  0  0  0
  1  2  1  0
  2  3  2  0
  2  4  1  0
  4  5  1  0
  5  6  2  0
  6  7  1  0
  7  8  2  0
  8  9  1  0
  9 10  2  0
 10 11  1  0
 11 12  2  0
 11 13  1  0
 10  5  1  0
  1 14  1  0
  1 15  1  0
  1 16  1  0
  6 17  1  0
  7 18  1  0
  8 19  1  0
  9 20  1  0
M  CHG  1  13  -1
M  END
>  <meeko>  (6) 
{"is_sidechain": [false], "free_energy": -4.93, "intermolecular_energy": -5.956, "internal_energy": -0.134}

$$$$
9KER_ligand_vina_best
     RDKit          3D

 20 20  0  0  0  0  0  0  0  0999 V2000
    5.5690    7.5750   28.9850 C   0  0  0  0  0  0  0  0  0  0  0  0
    5.7350    7.4870   27.4960 C   0  0  0  0  0  0  0  0  0  0  0  0
    5.3110    8.3350   26.7150 O   0  0  0  0  0  0  0  0  0  0  0  0
    6.2960    6.2590   27.1770 O   0  0  0  0  0  0  0  0  0  0  0  0
    5.3790    5.3920   26.5790 C   0  0  0  0  0  0  0  0  0  0  0  0
    4.4870    4.7160   27.4210 C   0  0  0  0  0  0  0  0  0  0  0  0
    3.5970    3.7880   26.8860 C   0  0  0  0  0  0  0  0  0  0  0  0
    3.6130    3.5270   25.5180 C   0  0  0  0  0  0  0  0  0  0  0  0
    4.5200    4.1930   24.6880 C   0  0  0  0  0  0  0  0  0  0  0  0
    5.4280    5.1410   25.1990 C   0  0  0  0  0  0  0  0  0  0  0  0
    6.3980    5.8290   24.2590 C   0  0  0  0  0  0  0  0  0  0  0  0
    7.3970    5.1440   23.8670 O   0  0  0  0  0  0  0  0  0  0  0  0
    6.1560    7.0290   23.9130 O   0  0  0  0  0  1  0  0  0  0  0  0
    6.4375    7.1146   29.4786 H   0  0  0  0  0  0  0  0  0  0  0  0
    5.4946    8.6310   29.2839 H   0  0  0  0  0  0  0  0  0  0  0  0
    4.6532    7.0439   29.2839 H   0  0  0  0  0  0  0  0  0  0  0  0
    4.4894    4.9176   28.5024 H   0  0  0  0  0  0  0  0  0  0  0  0
    2.8850    3.2638   27.5405 H   0  0  0  0  0  0  0  0  0  0  0  0
    2.9112    2.7960   25.0900 H   0  0  0  0  0  0  0  0  0  0  0  0
    4.5246    3.9714   23.6106 H   0  0  0  0  0  0  0  0  0  0  0  0
  1  2  1  0
  2  3  2  0
  2  4  1  0
  4  5  1  0
  5  6  2  0
  6  7  1  0
  7  8  2  0
  8  9  1  0
  9 10  2  0
 10 11  1  0
 11 12  2  0
 11 13  1  0
 10  5  1  0
  1 14  1  0
  1 15  1  0
  1 16  1  0
  6 17  1  0
  7 18  1  0
  8 19  1  0
  9 20  1  0
M  CHG  1  13  -1
M  END
>  <meeko>  (7) 
{"is_sidechain": [false], "free_energy": -4.835, "intermolecular_energy": -5.687, "internal_energy": -0.293}

$$$$
9KER_ligand_vina_best
     RDKit          3D

 20 20  0  0  0  0  0  0  0  0999 V2000
    5.3600    8.2050   24.0920 C   0  0  0  0  0  0  0  0  0  0  0  0
    5.5590    8.1580   25.5790 C   0  0  0  0  0  0  0  0  0  0  0  0
    5.0220    8.9390   26.3600 O   0  0  0  0  0  0  0  0  0  0  0  0
    6.5290    7.2110   25.8740 O   0  0  0  0  0  0  0  0  0  0  0  0
    5.9880    6.0370   26.4010 C   0  0  0  0  0  0  0  0  0  0  0  0
    5.6390    6.0400   27.7570 C   0  0  0  0  0  0  0  0  0  0  0  0
    5.1590    4.8750   28.3520 C   0  0  0  0  0  0  0  0  0  0  0  0
    5.0470    3.7110   27.5960 C   0  0  0  0  0  0  0  0  0  0  0  0
    5.4170    3.7130   26.2470 C   0  0  0  0  0  0  0  0  0  0  0  0
    5.8990    4.8760   25.6160 C   0  0  0  0  0  0  0  0  0  0  0  0
    6.2960    4.8240   24.1540 C   0  0  0  0  0  0  0  0  0  0  0  0
    5.3490    4.7520   23.3060 O   0  0  0  0  0  0  0  0  0  0  0  0
    7.5340    4.8670   23.8620 O   0  0  0  0  0  1  0  0  0  0  0  0
    4.3115    8.4526   23.8700 H   0  0  0  0  0  0  0  0  0  0  0  0
    6.0178    8.9725   23.6581 H   0  0  0  0  0  0  0  0  0  0  0  0
    5.6049    7.2243   23.6581 H   0  0  0  0  0  0  0  0  0  0  0  0
    5.7435    6.9598   28.3511 H   0  0  0  0  0  0  0  0  0  0  0  0
    4.8701    4.8748   29.4134 H   0  0  0  0  0  0  0  0  0  0  0  0
    4.6671    2.7889   28.0601 H   0  0  0  0  0  0  0  0  0  0  0  0
    5.3293    2.7837   25.6650 H   0  0  0  0  0  0  0  0  0  0  0  0
  1  2  1  0
  2  3  2  0
  2  4  1  0
  4  5  1  0
  5  6  2  0
  6  7  1  0
  7  8  2  0
  8  9  1  0
  9 10  2  0
 10 11  1  0
 11 12  2  0
 11 13  1  0
 10  5  1  0
  1 14  1  0
  1 15  1  0
  1 16  1  0
  6 17  1  0
  7 18  1  0
  8 19  1  0
  9 20  1  0
M  CHG  1  13  -1
M  END
>  <meeko>  (8) 
{"is_sidechain": [false], "free_energy": -4.813, "intermolecular_energy": -5.723, "internal_energy": -0.23}

$$$$
9KER_ligand_vina_best
     RDKit          3D

 20 20  0  0  0  0  0  0  0  0999 V2000
    5.2290    6.9060   23.0510 C   0  0  0  0  0  0  0  0  0  0  0  0
    5.5790    7.6400   24.3130 C   0  0  0  0  0  0  0  0  0  0  0  0
    5.2170    8.7890   24.5520 O   0  0  0  0  0  0  0  0  0  0  0  0
    6.4670    6.8700   25.0490 O   0  0  0  0  0  0  0  0  0  0  0  0
    5.9240    6.4400   26.2620 C   0  0  0  0  0  0  0  0  0  0  0  0
    5.9320    7.3460   27.3290 C   0  0  0  0  0  0  0  0  0  0  0  0
    5.4660    6.9470   28.5800 C   0  0  0  0  0  0  0  0  0  0  0  0
    5.0110    5.6440   28.7630 C   0  0  0  0  0  0  0  0  0  0  0  0
    5.0250    4.7410   27.6950 C   0  0  0  0  0  0  0  0  0  0  0  0
    5.4840    5.1160   26.4180 C   0  0  0  0  0  0  0  0  0  0  0  0
    5.4890    4.0960   25.2960 C   0  0  0  0  0  0  0  0  0  0  0  0
    4.3790    3.8890   24.7070 O   0  0  0  0  0  0  0  0  0  0  0  0
    6.5860    3.5220   25.0050 O   0  0  0  0  0  1  0  0  0  0  0  0
    4.7683    5.9398   23.3045 H   0  0  0  0  0  0  0  0  0  0  0  0
    4.5204    7.5068   22.4619 H   0  0  0  0  0  0  0  0  0  0  0  0
    6.1418    6.7336   22.4619 H   0  0  0  0  0  0  0  0  0  0  0  0
    6.3051    8.3700   27.1803 H   0  0  0  0  0  0  0  0  0  0  0  0
    5.4576    7.6582   29.4191 H   0  0  0  0  0  0  0  0  0  0  0  0
    4.6403    5.3245   29.7481 H   0  0  0  0  0  0  0  0  0  0  0  0
    4.6688    3.7129   27.8567 H   0  0  0  0  0  0  0  0  0  0  0  0
  1  2  1  0
  2  3  2  0
  2  4  1  0
  4  5  1  0
  5  6  2  0
  6  7  1  0
  7  8  2  0
  8  9  1  0
  9 10  2  0
 10 11  1  0
 11 12  2  0
 11 13  1  0
 10  5  1  0
  1 14  1  0
  1 15  1  0
  1 16  1  0
  6 17  1  0
  7 18  1  0
  8 19  1  0
  9 20  1  0
M  CHG  1  13  -1
M  END
>  <meeko>  (9) 
{"is_sidechain": [false], "free_energy": -4.738, "intermolecular_energy": -5.612, "internal_energy": -0.253}

$$$$
