
     RDKit          3D

 20 20  0  0  0  0  0  0  0  0999 V2000
   -0.8118    0.9507    0.0066 C   0  0  0  0  0  0  0  0  0  0  0  0
   -0.0309    2.2439    0.1344 C   0  0  0  0  0  0  0  0  0  0  0  0
   -0.7107    3.3143    0.2506 O   0  0  0  0  0  0  0  0  0  0  0  0
    1.2403    2.1854    0.1273 O   0  0  0  0  0  0  0  0  0  0  0  0
   -2.1829    0.9332    0.3291 C   0  0  0  0  0  0  0  0  0  0  0  0
   -0.2430   -0.2573   -0.4257 C   0  0  0  0  0  0  0  0  0  0  0  0
   -2.9461   -0.2339    0.2188 C   0  0  0  0  0  0  0  0  0  0  0  0
    1.0899   -0.3073   -0.8389 O   0  0  0  0  0  0  0  0  0  0  0  0
   -1.0034   -1.4264   -0.5578 C   0  0  0  0  0  0  0  0  0  0  0  0
   -2.3557   -1.4144   -0.2255 C   0  0  0  0  0  0  0  0  0  0  0  0
    1.9514   -0.6679    0.1874 C   0  0  0  0  0  0  0  0  0  0  0  0
    3.3560   -0.3208   -0.2116 C   0  0  0  0  0  0  0  0  0  0  0  0
    1.6701   -1.2882    1.2089 O   0  0  0  0  0  0  0  0  0  0  0  0
   -2.6546    1.8544    0.6706 H   0  0  0  0  0  0  0  0  0  0  0  0
   -3.9999   -0.2108    0.4792 H   0  0  0  0  0  0  0  0  0  0  0  0
   -0.5345   -2.3387   -0.9110 H   0  0  0  0  0  0  0  0  0  0  0  0
   -2.9464   -2.3203   -0.3144 H   0  0  0  0  0  0  0  0  0  0  0  0
    3.3836    0.6471   -0.7188 H   0  0  0  0  0  0  0  0  0  0  0  0
    3.7523   -1.0987   -0.8684 H   0  0  0  0  0  0  0  0  0  0  0  0
    3.9763   -0.2445    0.6859 H   0  0  0  0  0  0  0  0  0  0  0  0
  1  2  1  0
  2  3  2  0
  2  4  1  0
  5  1  2  0
  1  6  1  0
  7  5  1  0
  8  6  1  0
  6  9  2  0
 10  7  2  0
 11  8  1  0
  9 10  1  0
 12 11  1  0
 11 13  2  0
  5 14  1  0
  7 15  1  0
  9 16  1  0
 10 17  1  0
 12 18  1  0
 12 19  1  0
 12 20  1  0
M  CHG  1   4  -1
M  END
>  <ScrubInfo>  (1) 
{"isomerGroup": 0, "isomerId": 0, "confId": 0, "nr_conformers:": 1, "nr_isomers:": 1}

$$$$
