REMARK SMILES CC(=O)Oc1ccccc1C(=O)[O-]
REMARK SMILES IDX 10 1 9 2 5 3 8 4 6 5 7 6 11 7 12 8 13 9 4 10 2 11 1 12 3 13
REMARK H PARENT
ROOT
ATOM      1  C   UNL     1      -0.812   0.951   0.007  1.00  0.00     0.040 A 
ATOM      2  C   UNL     1      -2.183   0.933   0.329  1.00  0.00     0.014 A 
ATOM      3  C   UNL     1      -0.243  -0.257  -0.426  1.00  0.00     0.139 A 
ATOM      4  C   UNL     1      -2.946  -0.234   0.219  1.00  0.00     0.001 A 
ATOM      5  C   UNL     1      -1.003  -1.426  -0.558  1.00  0.00     0.048 A 
ATOM      6  C   UNL     1      -2.356  -1.414  -0.226  1.00  0.00     0.004 A 
ENDROOT
BRANCH   1   7
ATOM      7  C   UNL     1      -0.031   2.244   0.134  1.00  0.00     0.075 C 
ATOM      8  O   UNL     1      -0.711   3.314   0.251  1.00  0.00    -0.545 OA
ATOM      9  O   UNL     1       1.240   2.185   0.127  1.00  0.00    -0.545 OA
ENDBRANCH   1   7
BRANCH   3  10
ATOM     10  O   UNL     1       1.090  -0.307  -0.839  1.00  0.00    -0.426 OA
BRANCH  10  11
ATOM     11  C   UNL     1       1.951  -0.668   0.187  1.00  0.00     0.308 C 
ATOM     12  C   UNL     1       3.356  -0.321  -0.212  1.00  0.00     0.139 C 
ATOM     13  O   UNL     1       1.670  -1.288   1.209  1.00  0.00    -0.252 OA
ENDBRANCH  10  11
ENDBRANCH   3  10
TORSDOF 3
