MODEL 1
REMARK VINA RESULT:    -5.347      0.000      0.000
REMARK INTER + INTRA:          -6.620
REMARK INTER:                  -6.285
REMARK INTRA:                  -0.335
REMARK UNBOUND:                -0.335
REMARK SMILES CC(=O)Oc1ccccc1C(=O)[O-]
REMARK SMILES IDX 10 1 9 2 5 3 8 4 6 5 7 6 11 7 12 8 13 9 4 10 2 11 1 12 3 13
REMARK H PARENT
ROOT
ATOM      1  C   UNL     1       5.106   6.584  25.683  1.00  0.00     0.040 A 
ATOM      2  C   UNL     1       4.327   5.536  25.159  1.00  0.00     0.014 A 
ATOM      3  C   UNL     1       5.448   6.508  27.042  1.00  0.00     0.139 A 
ATOM      4  C   UNL     1       3.906   4.466  25.957  1.00  0.00     0.001 A 
ATOM      5  C   UNL     1       5.016   5.451  27.854  1.00  0.00     0.048 A 
ATOM      6  C   UNL     1       4.251   4.424  27.306  1.00  0.00     0.004 A 
ENDROOT
BRANCH   1   7
ATOM      7  C   UNL     1       5.528   7.725  24.778  1.00  0.00     0.075 C 
ATOM      8  O   UNL     1       6.388   7.456  23.880  1.00  0.00    -0.545 OA
ATOM      9  O   UNL     1       5.012   8.873  24.972  1.00  0.00    -0.545 OA
ENDBRANCH   1   7
BRANCH   3  10
ATOM     10  O   UNL     1       6.151   7.545  27.658  1.00  0.00    -0.426 OA
BRANCH  10  11
ATOM     11  C   UNL     1       5.345   8.319  28.480  1.00  0.00     0.308 C 
ATOM     12  C   UNL     1       5.870   8.247  29.884  1.00  0.00     0.139 C 
ATOM     13  O   UNL     1       4.429   9.060  28.136  1.00  0.00    -0.252 OA
ENDBRANCH  10  11
ENDBRANCH   3  10
TORSDOF 3
ENDMDL
MODEL 2
REMARK VINA RESULT:    -5.208      1.594      3.854
REMARK INTER + INTRA:          -6.457
REMARK INTER:                  -6.089
REMARK INTRA:                  -0.369
REMARK UNBOUND:                -0.335
REMARK SMILES CC(=O)Oc1ccccc1C(=O)[O-]
REMARK SMILES IDX 10 1 9 2 5 3 8 4 6 5 7 6 11 7 12 8 13 9 4 10 2 11 1 12 3 13
REMARK H PARENT
ROOT
ATOM      1  C   UNL     1       5.084   6.529  26.567  1.00  0.00     0.040 A 
ATOM      2  C   UNL     1       5.416   5.993  27.826  1.00  0.00     0.014 A 
ATOM      3  C   UNL     1       4.343   5.712  25.700  1.00  0.00     0.139 A 
ATOM      4  C   UNL     1       5.028   4.701  28.197  1.00  0.00     0.001 A 
ATOM      5  C   UNL     1       3.967   4.410  26.055  1.00  0.00     0.048 A 
ATOM      6  C   UNL     1       4.304   3.908  27.310  1.00  0.00     0.004 A 
ENDROOT
BRANCH   1   7
ATOM      7  C   UNL     1       5.536   7.932  26.210  1.00  0.00     0.075 C 
ATOM      8  O   UNL     1       6.468   8.032  25.349  1.00  0.00    -0.545 OA
ATOM      9  O   UNL     1       4.972   8.915  26.790  1.00  0.00    -0.545 OA
ENDBRANCH   1   7
BRANCH   3  10
ATOM     10  O   UNL     1       4.040   6.137  24.406  1.00  0.00    -0.426 OA
BRANCH  10  11
ATOM     11  C   UNL     1       4.810   5.500  23.443  1.00  0.00     0.308 C 
ATOM     12  C   UNL     1       3.944   5.179  22.261  1.00  0.00     0.139 C 
ATOM     13  O   UNL     1       6.026   5.329  23.459  1.00  0.00    -0.252 OA
ENDBRANCH  10  11
ENDBRANCH   3  10
TORSDOF 3
ENDMDL
MODEL 3
REMARK VINA RESULT:    -5.144      1.743      3.307
REMARK INTER + INTRA:          -6.381
REMARK INTER:                  -5.963
REMARK INTRA:                  -0.418
REMARK UNBOUND:                -0.335
REMARK SMILES CC(=O)Oc1ccccc1C(=O)[O-]
REMARK SMILES IDX 10 1 9 2 5 3 8 4 6 5 7 6 11 7 12 8 13 9 4 10 2 11 1 12 3 13
REMARK H PARENT
ROOT
ATOM      1  C   UNL     1       5.172   7.655  26.407  1.00  0.00     0.040 A 
ATOM      2  C   UNL     1       4.689   8.943  26.705  1.00  0.00     0.014 A 
ATOM      3  C   UNL     1       5.597   6.867  27.487  1.00  0.00     0.139 A 
ATOM      4  C   UNL     1       4.638   9.420  28.020  1.00  0.00     0.001 A 
ATOM      5  C   UNL     1       5.568   7.342  28.804  1.00  0.00     0.048 A 
ATOM      6  C   UNL     1       5.079   8.619  29.070  1.00  0.00     0.004 A 
ENDROOT
BRANCH   1   7
ATOM      7  C   UNL     1       5.215   7.190  24.964  1.00  0.00     0.075 C 
ATOM      8  O   UNL     1       6.105   7.712  24.220  1.00  0.00    -0.545 OA
ATOM      9  O   UNL     1       4.364   6.322  24.583  1.00  0.00    -0.545 OA
ENDBRANCH   1   7
BRANCH   3  10
ATOM     10  O   UNL     1       6.162   5.608  27.270  1.00  0.00    -0.426 OA
BRANCH  10  11
ATOM     11  C   UNL     1       5.328   4.575  27.672  1.00  0.00     0.308 C 
ATOM     12  C   UNL     1       6.060   3.714  28.659  1.00  0.00     0.139 C 
ATOM     13  O   UNL     1       4.141   4.428  27.395  1.00  0.00    -0.252 OA
ENDBRANCH  10  11
ENDBRANCH   3  10
TORSDOF 3
ENDMDL
MODEL 4
REMARK VINA RESULT:    -4.939      2.036      3.931
REMARK INTER + INTRA:          -6.140
REMARK INTER:                  -5.728
REMARK INTRA:                  -0.413
REMARK UNBOUND:                -0.335
REMARK SMILES CC(=O)Oc1ccccc1C(=O)[O-]
REMARK SMILES IDX 10 1 9 2 5 3 8 4 6 5 7 6 11 7 12 8 13 9 4 10 2 11 1 12 3 13
REMARK H PARENT
ROOT
ATOM      1  C   UNL     1       5.125   6.881  24.904  1.00  0.00     0.040 A 
ATOM      2  C   UNL     1       5.411   7.334  23.602  1.00  0.00     0.014 A 
ATOM      3  C   UNL     1       4.301   5.751  25.020  1.00  0.00     0.139 A 
ATOM      4  C   UNL     1       4.894   6.691  22.472  1.00  0.00     0.001 A 
ATOM      5  C   UNL     1       3.763   5.111  23.896  1.00  0.00     0.048 A 
ATOM      6  C   UNL     1       4.069   5.578  22.619  1.00  0.00     0.004 A 
ENDROOT
BRANCH   1   7
ATOM      7  C   UNL     1       5.702   7.620  26.095  1.00  0.00     0.075 C 
ATOM      8  O   UNL     1       5.110   8.690  26.448  1.00  0.00    -0.545 OA
ATOM      9  O   UNL     1       6.737   7.139  26.661  1.00  0.00    -0.545 OA
ENDBRANCH   1   7
BRANCH   3  10
ATOM     10  O   UNL     1       3.906   5.284  26.275  1.00  0.00    -0.426 OA
BRANCH  10  11
ATOM     11  C   UNL     1       4.499   4.073  26.602  1.00  0.00     0.308 C 
ATOM     12  C   UNL     1       3.424   3.051  26.829  1.00  0.00     0.139 C 
ATOM     13  O   UNL     1       5.697   3.806  26.590  1.00  0.00    -0.252 OA
ENDBRANCH  10  11
ENDBRANCH   3  10
TORSDOF 3
ENDMDL
MODEL 5
REMARK VINA RESULT:    -4.933      1.727      3.668
REMARK INTER + INTRA:          -6.134
REMARK INTER:                  -5.999
REMARK INTRA:                  -0.135
REMARK UNBOUND:                -0.335
REMARK SMILES CC(=O)Oc1ccccc1C(=O)[O-]
REMARK SMILES IDX 10 1 9 2 5 3 8 4 6 5 7 6 11 7 12 8 13 9 4 10 2 11 1 12 3 13
REMARK H PARENT
ROOT
ATOM      1  C   UNL     1       5.313   7.557  28.038  1.00  0.00     0.040 A 
ATOM      2  C   UNL     1       4.833   6.828  29.142  1.00  0.00     0.014 A 
ATOM      3  C   UNL     1       6.029   6.844  27.064  1.00  0.00     0.139 A 
ATOM      4  C   UNL     1       5.063   5.454  29.268  1.00  0.00     0.001 A 
ATOM      5  C   UNL     1       6.281   5.472  27.191  1.00  0.00     0.048 A 
ATOM      6  C   UNL     1       5.788   4.775  28.292  1.00  0.00     0.004 A 
ENDROOT
BRANCH   1   7
ATOM      7  C   UNL     1       5.045   9.048  27.953  1.00  0.00     0.075 C 
ATOM      8  O   UNL     1       4.321   9.445  26.986  1.00  0.00    -0.545 OA
ATOM      9  O   UNL     1       5.559   9.805  28.838  1.00  0.00    -0.545 OA
ENDBRANCH   1   7
BRANCH   3  10
ATOM     10  O   UNL     1       6.606   7.506  25.979  1.00  0.00    -0.426 OA
BRANCH  10  11
ATOM     11  C   UNL     1       6.332   6.882  24.769  1.00  0.00     0.308 C 
ATOM     12  C   UNL     1       5.190   7.591  24.104  1.00  0.00     0.139 C 
ATOM     13  O   UNL     1       6.976   5.983  24.236  1.00  0.00    -0.252 OA
ENDBRANCH  10  11
ENDBRANCH   3  10
TORSDOF 3
ENDMDL
MODEL 6
REMARK VINA RESULT:    -4.896      2.327      4.595
REMARK INTER + INTRA:          -6.091
REMARK INTER:                  -5.735
REMARK INTRA:                  -0.355
REMARK UNBOUND:                -0.335
REMARK SMILES CC(=O)Oc1ccccc1C(=O)[O-]
REMARK SMILES IDX 10 1 9 2 5 3 8 4 6 5 7 6 11 7 12 8 13 9 4 10 2 11 1 12 3 13
REMARK H PARENT
ROOT
ATOM      1  C   UNL     1       4.962   6.164  24.827  1.00  0.00     0.040 A 
ATOM      2  C   UNL     1       4.175   5.622  25.862  1.00  0.00     0.014 A 
ATOM      3  C   UNL     1       5.072   5.412  23.648  1.00  0.00     0.139 A 
ATOM      4  C   UNL     1       3.535   4.386  25.724  1.00  0.00     0.001 A 
ATOM      5  C   UNL     1       4.450   4.165  23.507  1.00  0.00     0.048 A 
ATOM      6  C   UNL     1       3.673   3.656  24.546  1.00  0.00     0.004 A 
ENDROOT
BRANCH   1   7
ATOM      7  C   UNL     1       5.643   7.504  25.031  1.00  0.00     0.075 C 
ATOM      8  O   UNL     1       5.163   8.493  24.390  1.00  0.00    -0.545 OA
ATOM      9  O   UNL     1       6.646   7.559  25.813  1.00  0.00    -0.545 OA
ENDBRANCH   1   7
BRANCH   3  10
ATOM     10  O   UNL     1       5.895   5.840  22.605  1.00  0.00    -0.426 OA
BRANCH  10  11
ATOM     11  C   UNL     1       7.048   5.077  22.489  1.00  0.00     0.308 C 
ATOM     12  C   UNL     1       7.314   4.814  21.037  1.00  0.00     0.139 C 
ATOM     13  O   UNL     1       7.822   4.761  23.389  1.00  0.00    -0.252 OA
ENDBRANCH  10  11
ENDBRANCH   3  10
TORSDOF 3
ENDMDL
MODEL 7
REMARK VINA RESULT:    -4.884      1.719      2.592
REMARK INTER + INTRA:          -6.076
REMARK INTER:                  -6.094
REMARK INTRA:                   0.018
REMARK UNBOUND:                -0.335
REMARK SMILES CC(=O)Oc1ccccc1C(=O)[O-]
REMARK SMILES IDX 10 1 9 2 5 3 8 4 6 5 7 6 11 7 12 8 13 9 4 10 2 11 1 12 3 13
REMARK H PARENT
ROOT
ATOM      1  C   UNL     1       5.807   5.169  25.658  1.00  0.00     0.040 A 
ATOM      2  C   UNL     1       5.277   3.990  26.214  1.00  0.00     0.014 A 
ATOM      3  C   UNL     1       5.975   6.263  26.522  1.00  0.00     0.139 A 
ATOM      4  C   UNL     1       4.927   3.910  27.567  1.00  0.00     0.001 A 
ATOM      5  C   UNL     1       5.609   6.199  27.873  1.00  0.00     0.048 A 
ATOM      6  C   UNL     1       5.093   5.016  28.396  1.00  0.00     0.004 A 
ENDROOT
BRANCH   1   7
ATOM      7  C   UNL     1       6.162   5.207  24.185  1.00  0.00     0.075 C 
ATOM      8  O   UNL     1       5.192   5.283  23.364  1.00  0.00    -0.545 OA
ATOM      9  O   UNL     1       7.391   5.151  23.857  1.00  0.00    -0.545 OA
ENDBRANCH   1   7
BRANCH   3  10
ATOM     10  O   UNL     1       6.420   7.493  26.034  1.00  0.00    -0.426 OA
BRANCH  10  11
ATOM     11  C   UNL     1       5.386   8.275  25.540  1.00  0.00     0.308 C 
ATOM     12  C   UNL     1       4.683   8.935  26.690  1.00  0.00     0.139 C 
ATOM     13  O   UNL     1       5.138   8.520  24.363  1.00  0.00    -0.252 OA
ENDBRANCH  10  11
ENDBRANCH   3  10
TORSDOF 3
ENDMDL
MODEL 8
REMARK VINA RESULT:    -4.801      1.675      3.222
REMARK INTER + INTRA:          -5.979
REMARK INTER:                  -5.769
REMARK INTRA:                  -0.210
REMARK UNBOUND:                -0.335
REMARK SMILES CC(=O)Oc1ccccc1C(=O)[O-]
REMARK SMILES IDX 10 1 9 2 5 3 8 4 6 5 7 6 11 7 12 8 13 9 4 10 2 11 1 12 3 13
REMARK H PARENT
ROOT
ATOM      1  C   UNL     1       4.837   4.758  27.248  1.00  0.00     0.040 A 
ATOM      2  C   UNL     1       3.964   3.752  26.794  1.00  0.00     0.014 A 
ATOM      3  C   UNL     1       4.989   5.888  26.430  1.00  0.00     0.139 A 
ATOM      4  C   UNL     1       3.280   3.868  25.579  1.00  0.00     0.001 A 
ATOM      5  C   UNL     1       4.324   6.006  25.202  1.00  0.00     0.048 A 
ATOM      6  C   UNL     1       3.461   4.996  24.782  1.00  0.00     0.004 A 
ENDROOT
BRANCH   1   7
ATOM      7  C   UNL     1       5.561   4.579  28.568  1.00  0.00     0.075 C 
ATOM      8  O   UNL     1       6.494   3.715  28.597  1.00  0.00    -0.545 OA
ATOM      9  O   UNL     1       5.193   5.287  29.560  1.00  0.00    -0.545 OA
ENDBRANCH   1   7
BRANCH   3  10
ATOM     10  O   UNL     1       5.895   6.895  26.768  1.00  0.00    -0.426 OA
BRANCH  10  11
ATOM     11  C   UNL     1       5.284   8.133  26.914  1.00  0.00     0.308 C 
ATOM     12  C   UNL     1       5.008   8.371  28.369  1.00  0.00     0.139 C 
ATOM     13  O   UNL     1       5.102   8.978  26.042  1.00  0.00    -0.252 OA
ENDBRANCH  10  11
ENDBRANCH   3  10
TORSDOF 3
ENDMDL
MODEL 9
REMARK VINA RESULT:    -4.784      1.916      3.702
REMARK INTER + INTRA:          -5.958
REMARK INTER:                  -5.712
REMARK INTRA:                  -0.246
REMARK UNBOUND:                -0.335
REMARK SMILES CC(=O)Oc1ccccc1C(=O)[O-]
REMARK SMILES IDX 10 1 9 2 5 3 8 4 6 5 7 6 11 7 12 8 13 9 4 10 2 11 1 12 3 13
REMARK H PARENT
ROOT
ATOM      1  C   UNL     1       5.586   6.573  26.587  1.00  0.00     0.040 A 
ATOM      2  C   UNL     1       5.728   7.537  27.603  1.00  0.00     0.014 A 
ATOM      3  C   UNL     1       5.126   5.304  26.971  1.00  0.00     0.139 A 
ATOM      4  C   UNL     1       5.430   7.243  28.938  1.00  0.00     0.001 A 
ATOM      5  C   UNL     1       4.843   4.995  28.308  1.00  0.00     0.048 A 
ATOM      6  C   UNL     1       4.987   5.971  29.291  1.00  0.00     0.004 A 
ENDROOT
BRANCH   1   7
ATOM      7  C   UNL     1       5.932   6.938  25.157  1.00  0.00     0.075 C 
ATOM      8  O   UNL     1       5.220   7.838  24.607  1.00  0.00    -0.545 OA
ATOM      9  O   UNL     1       6.896   6.327  24.593  1.00  0.00    -0.545 OA
ENDBRANCH   1   7
BRANCH   3  10
ATOM     10  O   UNL     1       5.032   4.269  26.039  1.00  0.00    -0.426 OA
BRANCH  10  11
ATOM     11  C   UNL     1       3.739   4.097  25.564  1.00  0.00     0.308 C 
ATOM     12  C   UNL     1       3.201   2.794  26.078  1.00  0.00     0.139 C 
ATOM     13  O   UNL     1       3.065   4.909  24.937  1.00  0.00    -0.252 OA
ENDBRANCH  10  11
ENDBRANCH   3  10
TORSDOF 3
ENDMDL
