9KER_ligand_vina_best
     RDKit          3D

 20 20  0  0  0  0  0  0  0  0999 V2000
    5.8700    8.2470   29.8840 C   0  0  0  0  0  0  0  0  0  0  0  0
    5.3450    8.3190   28.4800 C   0  0  0  0  0  0  0  0  0  0  0  0
    4.4290    9.0600   28.1360 O   0  0  0  0  0  0  0  0  0  0  0  0
    6.1510    7.5450   27.6580 O   0  0  0  0  0  0  0  0  0  0  0  0
    5.4480    6.5080   27.0420 C   0  0  0  0  0  0  0  0  0  0  0  0
    5.0160    5.4510   27.8540 C   0  0  0  0  0  0  0  0  0  0  0  0
    4.2510    4.4240   27.3060 C   0  0  0  0  0  0  0  0  0  0  0  0
    3.9060    4.4660   25.9570 C   0  0  0  0  0  0  0  0  0  0  0  0
    4.3270    5.5360   25.1590 C   0  0  0  0  0  0  0  0  0  0  0  0
    5.1060    6.5840   25.6830 C   0  0  0  0  0  0  0  0  0  0  0  0
    5.5280    7.7250   24.7780 C   0  0  0  0  0  0  0  0  0  0  0  0
    6.3880    7.4560   23.8800 O   0  0  0  0  0  0  0  0  0  0  0  0
    5.0120    8.8730   24.9720 O   0  0  0  0  0  1  0  0  0  0  0  0
    5.0370    8.3612   30.5933 H   0  0  0  0  0  0  0  0  0  0  0  0
    6.3569    7.2737   30.0439 H   0  0  0  0  0  0  0  0  0  0  0  0
    6.6010    9.0533   30.0439 H   0  0  0  0  0  0  0  0  0  0  0  0
    5.2803    5.4323   28.9216 H   0  0  0  0  0  0  0  0  0  0  0  0
    3.9210    3.5842   27.9352 H   0  0  0  0  0  0  0  0  0  0  0  0
    3.3023    3.6577   25.5187 H   0  0  0  0  0  0  0  0  0  0  0  0
    4.0420    5.5582   24.0968 H   0  0  0  0  0  0  0  0  0  0  0  0
  1  2  1  0
  2  3  2  0
  2  4  1  0
  4  5  1  0
  5  6  2  0
  6  7  1  0
  7  8  2  0
  8  9  1  0
  9 10  2  0
 10 11  1  0
 11 12  2  0
 11 13  1  0
 10  5  1  0
  1 14  1  0
  1 15  1  0
  1 16  1  0
  6 17  1  0
  7 18  1  0
  8 19  1  0
  9 20  1  0
M  CHG  1  13  -1
M  END
>  <meeko>  (1) 
{"is_sidechain": [false], "free_energy": -5.347, "intermolecular_energy": -6.285, "internal_energy": -0.335}

$$$$
9KER_ligand_vina_best
     RDKit          3D

 20 20  0  0  0  0  0  0  0  0999 V2000
    3.9440    5.1790   22.2610 C   0  0  0  0  0  0  0  0  0  0  0  0
    4.8100    5.5000   23.4430 C   0  0  0  0  0  0  0  0  0  0  0  0
    6.0260    5.3290   23.4590 O   0  0  0  0  0  0  0  0  0  0  0  0
    4.0400    6.1370   24.4060 O   0  0  0  0  0  0  0  0  0  0  0  0
    4.3430    5.7120   25.7000 C   0  0  0  0  0  0  0  0  0  0  0  0
    3.9670    4.4100   26.0550 C   0  0  0  0  0  0  0  0  0  0  0  0
    4.3040    3.9080   27.3100 C   0  0  0  0  0  0  0  0  0  0  0  0
    5.0280    4.7010   28.1970 C   0  0  0  0  0  0  0  0  0  0  0  0
    5.4160    5.9930   27.8260 C   0  0  0  0  0  0  0  0  0  0  0  0
    5.0840    6.5290   26.5670 C   0  0  0  0  0  0  0  0  0  0  0  0
    5.5360    7.9320   26.2100 C   0  0  0  0  0  0  0  0  0  0  0  0
    6.4680    8.0320   25.3490 O   0  0  0  0  0  0  0  0  0  0  0  0
    4.9720    8.9150   26.7900 O   0  0  0  0  0  1  0  0  0  0  0  0
    2.9661    4.8165   22.6106 H   0  0  0  0  0  0  0  0  0  0  0  0
    3.8033    6.0847   21.6528 H   0  0  0  0  0  0  0  0  0  0  0  0
    4.4276    4.4004   21.6528 H   0  0  0  0  0  0  0  0  0  0  0  0
    3.4066    3.7852   25.3440 H   0  0  0  0  0  0  0  0  0  0  0  0
    4.0000    2.8911   27.5988 H   0  0  0  0  0  0  0  0  0  0  0  0
    5.2950    4.3111   29.1903 H   0  0  0  0  0  0  0  0  0  0  0  0
    5.9940    6.6045   28.5345 H   0  0  0  0  0  0  0  0  0  0  0  0
  1  2  1  0
  2  3  2  0
  2  4  1  0
  4  5  1  0
  5  6  2  0
  6  7  1  0
  7  8  2  0
  8  9  1  0
  9 10  2  0
 10 11  1  0
 11 12  2  0
 11 13  1  0
 10  5  1  0
  1 14  1  0
  1 15  1  0
  1 16  1  0
  6 17  1  0
  7 18  1  0
  8 19  1  0
  9 20  1  0
M  CHG  1  13  -1
M  END
>  <meeko>  (2) 
{"is_sidechain": [false], "free_energy": -5.208, "intermolecular_energy": -6.089, "internal_energy": -0.369}

$$$$
9KER_ligand_vina_best
     RDKit          3D

 20 20  0  0  0  0  0  0  0  0999 V2000
    6.0600    3.7140   28.6590 C   0  0  0  0  0  0  0  0  0  0  0  0
    5.3280    4.5750   27.6720 C   0  0  0  0  0  0  0  0  0  0  0  0
    4.1410    4.4280   27.3950 O   0  0  0  0  0  0  0  0  0  0  0  0
    6.1620    5.6080   27.2700 O   0  0  0  0  0  0  0  0  0  0  0  0
    5.5970    6.8670   27.4870 C   0  0  0  0  0  0  0  0  0  0  0  0
    5.5680    7.3420   28.8040 C   0  0  0  0  0  0  0  0  0  0  0  0
    5.0790    8.6190   29.0700 C   0  0  0  0  0  0  0  0  0  0  0  0
    4.6380    9.4200   28.0200 C   0  0  0  0  0  0  0  0  0  0  0  0
    4.6890    8.9430   26.7050 C   0  0  0  0  0  0  0  0  0  0  0  0
    5.1720    7.6550   26.4070 C   0  0  0  0  0  0  0  0  0  0  0  0
    5.2150    7.1900   24.9640 C   0  0  0  0  0  0  0  0  0  0  0  0
    6.1050    7.7120   24.2200 O   0  0  0  0  0  0  0  0  0  0  0  0
    4.3640    6.3220   24.5830 O   0  0  0  0  0  1  0  0  0  0  0  0
    5.7970    4.0234   29.6813 H   0  0  0  0  0  0  0  0  0  0  0  0
    5.7756    2.6620   28.5096 H   0  0  0  0  0  0  0  0  0  0  0  0
    7.1441    3.8255   28.5096 H   0  0  0  0  0  0  0  0  0  0  0  0
    5.9306    6.7082   29.6267 H   0  0  0  0  0  0  0  0  0  0  0  0
    5.0415    8.9925   30.1040 H   0  0  0  0  0  0  0  0  0  0  0  0
    4.2492   10.4286   28.2240 H   0  0  0  0  0  0  0  0  0  0  0  0
    4.3435    9.5900   25.8852 H   0  0  0  0  0  0  0  0  0  0  0  0
  1  2  1  0
  2  3  2  0
  2  4  1  0
  4  5  1  0
  5  6  2  0
  6  7  1  0
  7  8  2  0
  8  9  1  0
  9 10  2  0
 10 11  1  0
 11 12  2  0
 11 13  1  0
 10  5  1  0
  1 14  1  0
  1 15  1  0
  1 16  1  0
  6 17  1  0
  7 18  1  0
  8 19  1  0
  9 20  1  0
M  CHG  1  13  -1
M  END
>  <meeko>  (3) 
{"is_sidechain": [false], "free_energy": -5.144, "intermolecular_energy": -5.963, "internal_energy": -0.418}

$$$$
9KER_ligand_vina_best
     RDKit          3D

 20 20  0  0  0  0  0  0  0  0999 V2000
    3.4240    3.0510   26.8290 C   0  0  0  0  0  0  0  0  0  0  0  0
    4.4990    4.0730   26.6020 C   0  0  0  0  0  0  0  0  0  0  0  0
    5.6970    3.8060   26.5900 O   0  0  0  0  0  0  0  0  0  0  0  0
    3.9060    5.2840   26.2750 O   0  0  0  0  0  0  0  0  0  0  0  0
    4.3010    5.7510   25.0200 C   0  0  0  0  0  0  0  0  0  0  0  0
    3.7630    5.1110   23.8960 C   0  0  0  0  0  0  0  0  0  0  0  0
    4.0690    5.5780   22.6190 C   0  0  0  0  0  0  0  0  0  0  0  0
    4.8940    6.6910   22.4720 C   0  0  0  0  0  0  0  0  0  0  0  0
    5.4110    7.3340   23.6020 C   0  0  0  0  0  0  0  0  0  0  0  0
    5.1250    6.8810   24.9040 C   0  0  0  0  0  0  0  0  0  0  0  0
    5.7020    7.6200   26.0950 C   0  0  0  0  0  0  0  0  0  0  0  0
    5.1100    8.6900   26.4480 O   0  0  0  0  0  0  0  0  0  0  0  0
    6.7370    7.1390   26.6610 O   0  0  0  0  0  1  0  0  0  0  0  0
    3.2750    2.9094   27.9096 H   0  0  0  0  0  0  0  0  0  0  0  0
    2.4856    3.3981   26.3719 H   0  0  0  0  0  0  0  0  0  0  0  0
    3.7233    2.0963   26.3719 H   0  0  0  0  0  0  0  0  0  0  0  0
    3.1005    4.2418   24.0210 H   0  0  0  0  0  0  0  0  0  0  0  0
    3.6614    5.0707   21.7322 H   0  0  0  0  0  0  0  0  0  0  0  0
    5.1391    7.0645   21.4668 H   0  0  0  0  0  0  0  0  0  0  0  0
    6.0566    8.2148   23.4699 H   0  0  0  0  0  0  0  0  0  0  0  0
  1  2  1  0
  2  3  2  0
  2  4  1  0
  4  5  1  0
  5  6  2  0
  6  7  1  0
  7  8  2  0
  8  9  1  0
  9 10  2  0
 10 11  1  0
 11 12  2  0
 11 13  1  0
 10  5  1  0
  1 14  1  0
  1 15  1  0
  1 16  1  0
  6 17  1  0
  7 18  1  0
  8 19  1  0
  9 20  1  0
M  CHG  1  13  -1
M  END
>  <meeko>  (4) 
{"is_sidechain": [false], "free_energy": -4.939, "intermolecular_energy": -5.728, "internal_energy": -0.413}

$$$$
9KER_ligand_vina_best
     RDKit          3D

 20 20  0  0  0  0  0  0  0  0999 V2000
    5.1900    7.5910   24.1040 C   0  0  0  0  0  0  0  0  0  0  0  0
    6.3320    6.8820   24.7690 C   0  0  0  0  0  0  0  0  0  0  0  0
    6.9760    5.9830   24.2360 O   0  0  0  0  0  0  0  0  0  0  0  0
    6.6060    7.5060   25.9790 O   0  0  0  0  0  0  0  0  0  0  0  0
    6.0290    6.8440   27.0640 C   0  0  0  0  0  0  0  0  0  0  0  0
    6.2810    5.4720   27.1910 C   0  0  0  0  0  0  0  0  0  0  0  0
    5.7880    4.7750   28.2920 C   0  0  0  0  0  0  0  0  0  0  0  0
    5.0630    5.4540   29.2680 C   0  0  0  0  0  0  0  0  0  0  0  0
    4.8330    6.8280   29.1420 C   0  0  0  0  0  0  0  0  0  0  0  0
    5.3130    7.5570   28.0380 C   0  0  0  0  0  0  0  0  0  0  0  0
    5.0450    9.0480   27.9530 C   0  0  0  0  0  0  0  0  0  0  0  0
    4.3210    9.4450   26.9860 O   0  0  0  0  0  0  0  0  0  0  0  0
    5.5590    9.8050   28.8380 O   0  0  0  0  0  1  0  0  0  0  0  0
    4.5201    8.0069   24.8710 H   0  0  0  0  0  0  0  0  0  0  0  0
    5.5799    8.4061   23.4766 H   0  0  0  0  0  0  0  0  0  0  0  0
    4.6324    6.8800   23.4766 H   0  0  0  0  0  0  0  0  0  0  0  0
    6.8670    4.9459   26.4230 H   0  0  0  0  0  0  0  0  0  0  0  0
    5.9704    3.6946   28.3898 H   0  0  0  0  0  0  0  0  0  0  0  0
    4.6706    4.9091   30.1393 H   0  0  0  0  0  0  0  0  0  0  0  0
    4.2635    7.3511   29.9243 H   0  0  0  0  0  0  0  0  0  0  0  0
  1  2  1  0
  2  3  2  0
  2  4  1  0
  4  5  1  0
  5  6  2  0
  6  7  1  0
  7  8  2  0
  8  9  1  0
  9 10  2  0
 10 11  1  0
 11 12  2  0
 11 13  1  0
 10  5  1  0
  1 14  1  0
  1 15  1  0
  1 16  1  0
  6 17  1  0
  7 18  1  0
  8 19  1  0
  9 20  1  0
M  CHG  1  13  -1
M  END
>  <meeko>  (5) 
{"is_sidechain": [false], "free_energy": -4.933, "intermolecular_energy": -5.999, "internal_energy": -0.135}

$$$$
9KER_ligand_vina_best
     RDKit          3D

 20 20  0  0  0  0  0  0  0  0999 V2000
    7.3140    4.8140   21.0370 C   0  0  0  0  0  0  0  0  0  0  0  0
    7.0480    5.0770   22.4890 C   0  0  0  0  0  0  0  0  0  0  0  0
    7.8220    4.7610   23.3890 O   0  0  0  0  0  0  0  0  0  0  0  0
    5.8950    5.8400   22.6050 O   0  0  0  0  0  0  0  0  0  0  0  0
    5.0720    5.4120   23.6480 C   0  0  0  0  0  0  0  0  0  0  0  0
    4.4500    4.1650   23.5070 C   0  0  0  0  0  0  0  0  0  0  0  0
    3.6730    3.6560   24.5460 C   0  0  0  0  0  0  0  0  0  0  0  0
    3.5350    4.3860   25.7240 C   0  0  0  0  0  0  0  0  0  0  0  0
    4.1750    5.6220   25.8620 C   0  0  0  0  0  0  0  0  0  0  0  0
    4.9620    6.1640   24.8270 C   0  0  0  0  0  0  0  0  0  0  0  0
    5.6430    7.5040   25.0310 C   0  0  0  0  0  0  0  0  0  0  0  0
    5.1630    8.4930   24.3900 O   0  0  0  0  0  0  0  0  0  0  0  0
    6.6460    7.5590   25.8130 O   0  0  0  0  0  1  0  0  0  0  0  0
    8.0932    4.0436   20.9407 H   0  0  0  0  0  0  0  0  0  0  0  0
    6.3905    4.4641   20.5526 H   0  0  0  0  0  0  0  0  0  0  0  0
    7.6534    5.7414   20.5526 H   0  0  0  0  0  0  0  0  0  0  0  0
    4.5745    3.5887   22.5783 H   0  0  0  0  0  0  0  0  0  0  0  0
    3.1715    2.6831   24.4363 H   0  0  0  0  0  0  0  0  0  0  0  0
    2.9219    3.9900   26.5470 H   0  0  0  0  0  0  0  0  0  0  0  0
    4.0611    6.1840   26.8007 H   0  0  0  0  0  0  0  0  0  0  0  0
  1  2  1  0
  2  3  2  0
  2  4  1  0
  4  5  1  0
  5  6  2  0
  6  7  1  0
  7  8  2  0
  8  9  1  0
  9 10  2  0
 10 11  1  0
 11 12  2  0
 11 13  1  0
 10  5  1  0
  1 14  1  0
  1 15  1  0
  1 16  1  0
  6 17  1  0
  7 18  1  0
  8 19  1  0
  9 20  1  0
M  CHG  1  13  -1
M  END
>  <meeko>  (6) 
{"is_sidechain": [false], "free_energy": -4.896, "intermolecular_energy": -5.735, "internal_energy": -0.355}

$$$$
9KER_ligand_vina_best
     RDKit          3D

 20 20  0  0  0  0  0  0  0  0999 V2000
    4.6830    8.9350   26.6900 C   0  0  0  0  0  0  0  0  0  0  0  0
    5.3860    8.2750   25.5400 C   0  0  0  0  0  0  0  0  0  0  0  0
    5.1380    8.5200   24.3630 O   0  0  0  0  0  0  0  0  0  0  0  0
    6.4200    7.4930   26.0340 O   0  0  0  0  0  0  0  0  0  0  0  0
    5.9750    6.2630   26.5220 C   0  0  0  0  0  0  0  0  0  0  0  0
    5.6090    6.1990   27.8730 C   0  0  0  0  0  0  0  0  0  0  0  0
    5.0930    5.0160   28.3960 C   0  0  0  0  0  0  0  0  0  0  0  0
    4.9270    3.9100   27.5670 C   0  0  0  0  0  0  0  0  0  0  0  0
    5.2770    3.9900   26.2140 C   0  0  0  0  0  0  0  0  0  0  0  0
    5.8070    5.1690   25.6580 C   0  0  0  0  0  0  0  0  0  0  0  0
    6.1620    5.2070   24.1850 C   0  0  0  0  0  0  0  0  0  0  0  0
    5.1920    5.2830   23.3640 O   0  0  0  0  0  0  0  0  0  0  0  0
    7.3910    5.1510   23.8570 O   0  0  0  0  0  1  0  0  0  0  0  0
    5.0906    8.5523   27.6373 H   0  0  0  0  0  0  0  0  0  0  0  0
    4.8363   10.0230   26.6378 H   0  0  0  0  0  0  0  0  0  0  0  0
    3.6068    8.7134   26.6378 H   0  0  0  0  0  0  0  0  0  0  0  0
    5.7290    7.0812   28.5190 H   0  0  0  0  0  0  0  0  0  0  0  0
    4.8178    4.9557   29.4593 H   0  0  0  0  0  0  0  0  0  0  0  0
    4.5207    2.9729   27.9753 H   0  0  0  0  0  0  0  0  0  0  0  0
    5.1343    3.1099   25.5698 H   0  0  0  0  0  0  0  0  0  0  0  0
  1  2  1  0
  2  3  2  0
  2  4  1  0
  4  5  1  0
  5  6  2  0
  6  7  1  0
  7  8  2  0
  8  9  1  0
  9 10  2  0
 10 11  1  0
 11 12  2  0
 11 13  1  0
 10  5  1  0
  1 14  1  0
  1 15  1  0
  1 16  1  0
  6 17  1  0
  7 18  1  0
  8 19  1  0
  9 20  1  0
M  CHG  1  13  -1
M  END
>  <meeko>  (7) 
{"is_sidechain": [false], "free_energy": -4.884, "intermolecular_energy": -6.094, "internal_energy": 0.018}

$$$$
9KER_ligand_vina_best
     RDKit          3D

 20 20  0  0  0  0  0  0  0  0999 V2000
    5.0080    8.3710   28.3690 C   0  0  0  0  0  0  0  0  0  0  0  0
    5.2840    8.1330   26.9140 C   0  0  0  0  0  0  0  0  0  0  0  0
    5.1020    8.9780   26.0420 O   0  0  0  0  0  0  0  0  0  0  0  0
    5.8950    6.8950   26.7680 O   0  0  0  0  0  0  0  0  0  0  0  0
    4.9890    5.8880   26.4300 C   0  0  0  0  0  0  0  0  0  0  0  0
    4.3240    6.0060   25.2020 C   0  0  0  0  0  0  0  0  0  0  0  0
    3.4610    4.9960   24.7820 C   0  0  0  0  0  0  0  0  0  0  0  0
    3.2800    3.8680   25.5790 C   0  0  0  0  0  0  0  0  0  0  0  0
    3.9640    3.7520   26.7940 C   0  0  0  0  0  0  0  0  0  0  0  0
    4.8370    4.7580   27.2480 C   0  0  0  0  0  0  0  0  0  0  0  0
    5.5610    4.5790   28.5680 C   0  0  0  0  0  0  0  0  0  0  0  0
    6.4940    3.7150   28.5970 O   0  0  0  0  0  0  0  0  0  0  0  0
    5.1930    5.2870   29.5600 O   0  0  0  0  0  1  0  0  0  0  0  0
    5.7024    7.7722   28.9767 H   0  0  0  0  0  0  0  0  0  0  0  0
    5.1461    9.4378   28.5987 H   0  0  0  0  0  0  0  0  0  0  0  0
    3.9731    8.0775   28.5987 H   0  0  0  0  0  0  0  0  0  0  0  0
    4.4829    6.8933   24.5716 H   0  0  0  0  0  0  0  0  0  0  0  0
    2.9253    5.0889   23.8258 H   0  0  0  0  0  0  0  0  0  0  0  0
    2.5990    3.0681   25.2530 H   0  0  0  0  0  0  0  0  0  0  0  0
    3.8157    2.8524   27.4094 H   0  0  0  0  0  0  0  0  0  0  0  0
  1  2  1  0
  2  3  2  0
  2  4  1  0
  4  5  1  0
  5  6  2  0
  6  7  1  0
  7  8  2  0
  8  9  1  0
  9 10  2  0
 10 11  1  0
 11 12  2  0
 11 13  1  0
 10  5  1  0
  1 14  1  0
  1 15  1  0
  1 16  1  0
  6 17  1  0
  7 18  1  0
  8 19  1  0
  9 20  1  0
M  CHG  1  13  -1
M  END
>  <meeko>  (8) 
{"is_sidechain": [false], "free_energy": -4.801, "intermolecular_energy": -5.769, "internal_energy": -0.21}

$$$$
9KER_ligand_vina_best
     RDKit          3D

 20 20  0  0  0  0  0  0  0  0999 V2000
    3.2010    2.7940   26.0780 C   0  0  0  0  0  0  0  0  0  0  0  0
    3.7390    4.0970   25.5640 C   0  0  0  0  0  0  0  0  0  0  0  0
    3.0650    4.9090   24.9370 O   0  0  0  0  0  0  0  0  0  0  0  0
    5.0320    4.2690   26.0390 O   0  0  0  0  0  0  0  0  0  0  0  0
    5.1260    5.3040   26.9710 C   0  0  0  0  0  0  0  0  0  0  0  0
    4.8430    4.9950   28.3080 C   0  0  0  0  0  0  0  0  0  0  0  0
    4.9870    5.9710   29.2910 C   0  0  0  0  0  0  0  0  0  0  0  0
    5.4300    7.2430   28.9380 C   0  0  0  0  0  0  0  0  0  0  0  0
    5.7280    7.5370   27.6030 C   0  0  0  0  0  0  0  0  0  0  0  0
    5.5860    6.5730   26.5870 C   0  0  0  0  0  0  0  0  0  0  0  0
    5.9320    6.9380   25.1570 C   0  0  0  0  0  0  0  0  0  0  0  0
    5.2200    7.8380   24.6070 O   0  0  0  0  0  0  0  0  0  0  0  0
    6.8960    6.3270   24.5930 O   0  0  0  0  0  1  0  0  0  0  0  0
    3.2051    2.8040   27.1779 H   0  0  0  0  0  0  0  0  0  0  0  0
    2.1716    2.6542   25.7164 H   0  0  0  0  0  0  0  0  0  0  0  0
    3.8319    1.9686   25.7164 H   0  0  0  0  0  0  0  0  0  0  0  0
    4.5077    3.9835   28.5807 H   0  0  0  0  0  0  0  0  0  0  0  0
    4.7521    5.7384   30.3402 H   0  0  0  0  0  0  0  0  0  0  0  0
    5.5459    8.0180   29.7100 H   0  0  0  0  0  0  0  0  0  0  0  0
    6.0816    8.5452   27.3411 H   0  0  0  0  0  0  0  0  0  0  0  0
  1  2  1  0
  2  3  2  0
  2  4  1  0
  4  5  1  0
  5  6  2  0
  6  7  1  0
  7  8  2  0
  8  9  1  0
  9 10  2  0
 10 11  1  0
 11 12  2  0
 11 13  1  0
 10  5  1  0
  1 14  1  0
  1 15  1  0
  1 16  1  0
  6 17  1  0
  7 18  1  0
  8 19  1  0
  9 20  1  0
M  CHG  1  13  -1
M  END
>  <meeko>  (9) 
{"is_sidechain": [false], "free_energy": -4.784, "intermolecular_energy": -5.712, "internal_energy": -0.246}

$$$$
