REMARK SMILES CC(=O)Oc1ccccc1C(=O)[O-]
REMARK SMILES IDX 10 1 9 2 5 3 8 4 6 5 7 6 11 7 12 8 13 9 4 10 2 11 1 12 3 13
REMARK H PARENT
ROOT
ATOM      1  C   UNL     1      -0.780   0.976   0.061  1.00  0.00     0.040 A 
ATOM      2  C   UNL     1      -2.180   1.005  -0.084  1.00  0.00     0.014 A 
ATOM      3  C   UNL     1      -0.200  -0.252   0.414  1.00  0.00     0.139 A 
ATOM      4  C   UNL     1      -2.961  -0.138   0.119  1.00  0.00     0.001 A 
ATOM      5  C   UNL     1      -0.975  -1.397   0.638  1.00  0.00     0.048 A 
ATOM      6  C   UNL     1      -2.358  -1.340   0.481  1.00  0.00     0.004 A 
ENDROOT
BRANCH   1   7
ATOM      7  C   UNL     1       0.020   2.245  -0.161  1.00  0.00     0.075 C 
ATOM      8  O   UNL     1      -0.633   3.337  -0.186  1.00  0.00    -0.545 OA
ATOM      9  O   UNL     1       1.280   2.146  -0.316  1.00  0.00    -0.545 OA
ENDBRANCH   1   7
BRANCH   3  10
ATOM     10  O   UNL     1       1.172  -0.348   0.654  1.00  0.00    -0.426 OA
BRANCH  10  11
ATOM     11  C   UNL     1       1.884  -0.728  -0.475  1.00  0.00     0.308 C 
ATOM     12  C   UNL     1       3.338  -0.429  -0.257  1.00  0.00     0.139 C 
ATOM     13  O   UNL     1       1.455  -1.332  -1.454  1.00  0.00    -0.252 OA
ENDBRANCH  10  11
ENDBRANCH   3  10
TORSDOF 3
