
     RDKit          3D

 20 20  0  0  0  0  0  0  0  0999 V2000
   -0.7796    0.9764    0.0615 C   0  0  0  0  0  0  0  0  0  0  0  0
    0.0204    2.2450   -0.1609 C   0  0  0  0  0  0  0  0  0  0  0  0
   -0.6335    3.3373   -0.1863 O   0  0  0  0  0  0  0  0  0  0  0  0
    1.2795    2.1459   -0.3160 O   0  0  0  0  0  0  0  0  0  0  0  0
   -2.1805    1.0050   -0.0837 C   0  0  0  0  0  0  0  0  0  0  0  0
   -0.2000   -0.2521    0.4141 C   0  0  0  0  0  0  0  0  0  0  0  0
   -2.9610   -0.1380    0.1195 C   0  0  0  0  0  0  0  0  0  0  0  0
    1.1723   -0.3476    0.6538 O   0  0  0  0  0  0  0  0  0  0  0  0
   -0.9750   -1.3974    0.6385 C   0  0  0  0  0  0  0  0  0  0  0  0
   -2.3576   -1.3398    0.4814 C   0  0  0  0  0  0  0  0  0  0  0  0
    1.8840   -0.7282   -0.4750 C   0  0  0  0  0  0  0  0  0  0  0  0
    3.3385   -0.4289   -0.2573 C   0  0  0  0  0  0  0  0  0  0  0  0
    1.4549   -1.3318   -1.4542 O   0  0  0  0  0  0  0  0  0  0  0  0
   -2.6615    1.9431   -0.3595 H   0  0  0  0  0  0  0  0  0  0  0  0
   -4.0380   -0.0794   -0.0044 H   0  0  0  0  0  0  0  0  0  0  0  0
   -0.4949   -2.3267    0.9263 H   0  0  0  0  0  0  0  0  0  0  0  0
   -2.9612   -2.2270    0.6420 H   0  0  0  0  0  0  0  0  0  0  0  0
    3.4619    0.5340    0.2452 H   0  0  0  0  0  0  0  0  0  0  0  0
    3.7896   -1.2237    0.3413 H   0  0  0  0  0  0  0  0  0  0  0  0
    3.8416   -0.3659   -1.2262 H   0  0  0  0  0  0  0  0  0  0  0  0
  1  2  1  0
  2  3  2  0
  2  4  1  0
  5  1  2  0
  1  6  1  0
  7  5  1  0
  8  6  1  0
  6  9  2  0
 10  7  2  0
 11  8  1  0
  9 10  1  0
 12 11  1  0
 11 13  2  0
  5 14  1  0
  7 15  1  0
  9 16  1  0
 10 17  1  0
 12 18  1  0
 12 19  1  0
 12 20  1  0
M  CHG  1   4  -1
M  END
>  <ScrubInfo>  (1) 
{"isomerGroup": 0, "isomerId": 0, "confId": 0, "nr_conformers:": 1, "nr_isomers:": 1}

$$$$
